*Heading
** Job name: Job-FixedBC Model name: Fixed_BC_Model
** Generated by: Abaqus/CAE 2020
*Preprint, echo=NO, model=NO, history=NO, contact=NO
**
** PARTS
**
*Part, name=Part-1
*End Part
**  
**
** ASSEMBLY
**
*Assembly, name=Assembly
**  
*Instance, name=Part-1-1, part=Part-1
*Node
      1,           0.,  0.190088198,           0.
      2,           0.,  0.190088198,          20.
      3,  0.190088198,           0.,          20.
      4,  0.190088198,           0.,           0.
      5,           0.,          0.5,           0.
      6,           0.,  0.639628589,          20.
      7,  0.639628589,           0.,          20.
      8,          0.5,           0.,           0.
      9, -0.190088198,           0.,           0.
     10, -0.190088198,           0.,          20.
     11,         -0.5,           0.,           0.
     12, -0.639628589,           0.,          20.
     13,           0., -0.190088198,           0.
     14,           0., -0.190088198,          20.
     15,           0.,         -0.5,           0.
     16,           0., -0.639628589,          20.
     17,           0.,           0.,          20.
     18,           0.,           0.,           0.
     19,           0.,  0.190088198,          0.5
     20,           0.,  0.190088198,           1.
** ... 4941 like lines cut
*Element, type=C3D8I
  1,    1,   19,  474,  106,  198,  894, 2622,  864
  2,   19,   20,  475,  474,  894,  895, 2623, 2622
  3,   20,   21,  476,  475,  895,  896, 2624, 2623
  4,   21,   22,  477,  476,  896,  897, 2625, 2624
  5,   22,   23,  478,  477,  897,  898, 2626, 2625
  6,   23,   24,  479,  478,  898,  899, 2627, 2626
  7,   24,   25,  480,  479,  899,  900, 2628, 2627
  8,   25,   26,  481,  480,  900,  901, 2629, 2628
  9,   26,   27,  482,  481,  901,  902, 2630, 2629
 10,   27,   28,  483,  482,  902,  903, 2631, 2630
 11,   28,   29,  484,  483,  903,  904, 2632, 2631
 12,   29,   30,  485,  484,  904,  905, 2633, 2632
 13,   30,   31,  486,  485,  905,  906, 2634, 2633
 14,   31,   32,  487,  486,  906,  907, 2635, 2634
 15,   32,   33,  488,  487,  907,  908, 2636, 2635
 16,   33,   34,  489,  488,  908,  909, 2637, 2636
 17,   34,   35,  490,  489,  909,  910, 2638, 2637
 18,   35,   36,  491,  490,  910,  911, 2639, 2638
 19,   36,   37,  492,  491,  911,  912, 2640, 2639
 20,   37,   38,  493,  492,  912,  913, 2641, 2640
** ... 3820 like lines cut
*Element, type=C3D6
3841,  17,  62,   3, 473, 668,  63
3842,  60,  61,  17, 590, 629, 473
3843,  59,  17,  58, 551, 473, 512
3844,  17,  61,  62, 473, 629, 668
3845,  17,  59,  60, 473, 551, 590
3846,  17,   2,  58, 473,  57, 512
3847, 473, 668,  63, 472, 667,  64
3848, 590, 629, 473, 589, 628, 472
3849, 551, 473, 512, 550, 472, 511
3850, 473, 629, 668, 472, 628, 667
3851, 473, 551, 590, 472, 550, 589
3852, 473,  57, 512, 472,  56, 511
3853, 472, 667,  64, 471, 666,  65
3854, 589, 628, 472, 588, 627, 471
3855, 550, 472, 511, 549, 471, 510
3856, 472, 628, 667, 471, 627, 666
3857, 472, 550, 589, 471, 549, 588
3858, 472,  56, 511, 471,  55, 510
3859, 471, 666,  65, 470, 665,  66
3860, 588, 627, 471, 587, 626, 470
** ... 940 like lines cut
*Nset, nset=Set-1, generate
    1,  4961,     1
*Elset, elset=Set-1, generate
    1,  4800,     1
** Section: Section-1
*Solid Section, elset=Set-1, material=Plant_A
,
*End Instance
**  
*Node
      1, 1.11022302e-16, 9.18485073e-17,           0.
*Node
      2,           0., -3.91659564e-17,          20.
*Nset, nset=Dips_5, instance=Part-1-1
   33,   87,  121,  175,  221,  270,  330,  379,  449,  488,  527,  566,  605,  644,  683,  722
  761,  800,  839,  908,  947,  986, 1025, 1064, 1103, 1142, 1181, 1220, 1259, 1298, 1337, 1376
 1415, 1454, 1493, 1562, 1601, 1640, 1689, 1728, 1767, 1806, 1845, 1884, 1923, 1962, 2001, 2040
 2109, 2148, 2187, 2302, 2303, 2304, 2305, 2306, 2497, 2498, 2499, 2500, 2501, 2636, 2675, 2714
 2753, 2792, 2831, 2870, 2909, 2948, 2987, 3026, 3065, 3104, 3143, 3182, 3221, 3260, 3299, 3338
 3377, 3416, 3455, 3494, 3533, 3572, 3611, 3650, 3689, 3728, 3767, 3816, 3855, 3894, 3933, 3972
 4011, 4050, 4089, 4128, 4167, 4206, 4245, 4284, 4323, 4362, 4587, 4588, 4589, 4590, 4591, 4592
 4593, 4594, 4595, 4596, 4597, 4598, 4599, 4600, 4601
*Nset, nset=Dips_6, instance=Part-1-1
   28,   92,  116,  180,  216,  265,  325,  374,  444,  483,  522,  561,  600,  639,  678,  717
  756,  795,  834,  903,  942,  981, 1020, 1059, 1098, 1137, 1176, 1215, 1254, 1293, 1332, 1371
 1410, 1449, 1488, 1557, 1596, 1635, 1694, 1733, 1772, 1811, 1850, 1889, 2045, 2114, 2153, 2192
 2277, 2278, 2279, 2280, 2281, 2472, 2473, 2474, 2475, 2476, 2631, 2670, 2709, 2748, 2787, 2826
 2865, 2904, 2943, 2982, 3021, 3060, 3099, 3138, 3177, 3216, 3255, 3294, 3333, 3372, 3411, 3450
 3489, 3528, 3567, 3606, 3645, 3684, 3723, 3762, 3821, 3860, 3899, 3938, 3977, 4016, 4055, 4094
 4133, 4172, 4211, 4250, 4289, 4328, 4367, 4512, 4513, 4514, 4515, 4516, 4517, 4518, 4519, 4520
 4521, 4522, 4523, 4524, 4525, 4526
*Nset, nset=Dips_7, instance=Part-1-1
   23,   97,  111,  185,  211,  260,  320,  369,  439,  478,  517,  556,  595,  634,  673,  712
  751,  790,  829,  898,  937,  976, 1015, 1054, 1093, 1132, 1171, 1210, 1249, 1288, 1327, 1366
 1405, 1444, 1483, 1552, 1591, 1630, 1699, 1738, 1777, 1816, 1855, 1894, 1933, 1972, 2011, 2050
 2119, 2158, 2197, 2252, 2253, 2254, 2255, 2256, 2447, 2448, 2449, 2450, 2451, 2626, 2665, 2704
 2743, 2782, 2821, 2860, 2899, 2938, 2977, 3016, 3055, 3094, 3133, 3172, 3211, 3250, 3289, 3328
 3367, 3406, 3445, 3484, 3523, 3562, 3601, 3640, 3679, 3718, 3757, 3826, 3865, 3904, 3943, 3982
 4021, 4060, 4099, 4138, 4177, 4216, 4255, 4294, 4333, 4372, 4437, 4438, 4439, 4440, 4441, 4442
 4443, 4444, 4445, 4446, 4447, 4448, 4449, 4450, 4451
*Nset, nset=Disp_1, instance=Part-1-1
   53,   67,  141,  155,  241,  290,  350,  399,  469,  508,  547,  586,  625,  664,  703,  742
  781,  820,  859,  928,  967, 1006, 1045, 1084, 1123, 1162, 1201, 1240, 1279, 1318, 1357, 1396
 1435, 1474, 1513, 1582, 1621, 1660, 1669, 1708, 1747, 1786, 1825, 1864, 1903, 1942, 1981, 2020
 2089, 2128, 2167, 2402, 2403, 2404, 2405, 2406, 2597, 2598, 2599, 2600, 2601, 2656, 2695, 2734
 2773, 2812, 2851, 2890, 2929, 2968, 3007, 3046, 3085, 3124, 3163, 3202, 3241, 3280, 3319, 3358
 3397, 3436, 3475, 3514, 3553, 3592, 3631, 3670, 3709, 3748, 3787, 3796, 3835, 3874, 3913, 3952
 3991, 4030, 4069, 4108, 4147, 4186, 4225, 4264, 4303, 4342, 4887, 4888, 4889, 4890, 4891, 4892
 4893, 4894, 4895, 4896, 4897, 4898, 4899, 4900, 4901
*Nset, nset=Disp_2, instance=Part-1-1
   48,   72,  136,  160,  236,  285,  345,  394,  464,  503,  542,  581,  620,  659,  698,  737
  776,  815,  854,  923,  962, 1001, 1040, 1079, 1118, 1157, 1196, 1235, 1274, 1313, 1352, 1391
 1430, 1469, 1508, 1577, 1616, 1655, 1674, 1713, 1752, 1791, 1830, 1869, 1908, 1947, 1986, 2025
 2094, 2133, 2172, 2377, 2378, 2379, 2380, 2381, 2572, 2573, 2574, 2575, 2576, 2651, 2690, 2729
 2768, 2807, 2846, 2885, 2924, 2963, 3002, 3041, 3080, 3119, 3158, 3197, 3236, 3275, 3314, 3353
 3392, 3431, 3470, 3509, 3548, 3587, 3626, 3665, 3704, 3743, 3782, 3801, 3840, 3879, 3918, 3957
 3996, 4035, 4074, 4113, 4152, 4191, 4230, 4269, 4308, 4347, 4812, 4813, 4814, 4815, 4816, 4817
 4818, 4819, 4820, 4821, 4822, 4823, 4824, 4825, 4826
*Nset, nset=Disp_3, instance=Part-1-1
   43,   77,  131,  165,  231,  280,  340,  389,  459,  498,  537,  576,  615,  654,  693,  732
  771,  810,  849,  918,  957,  996, 1035, 1074, 1113, 1152, 1191, 1230, 1269, 1308, 1347, 1386
 1425, 1464, 1503, 1572, 1611, 1650, 1679, 1718, 1757, 1796, 1835, 1874, 1913, 1952, 1991, 2030
 2099, 2138, 2177, 2352, 2353, 2354, 2355, 2356, 2547, 2548, 2549, 2550, 2551, 2646, 2685, 2724
 2763, 2802, 2841, 2880, 2919, 2958, 2997, 3036, 3075, 3114, 3153, 3192, 3231, 3270, 3309, 3348
 3387, 3426, 3465, 3504, 3543, 3582, 3621, 3660, 3699, 3738, 3777, 3806, 3845, 3884, 3923, 3962
 4001, 4040, 4079, 4118, 4157, 4196, 4235, 4274, 4313, 4352, 4737, 4738, 4739, 4740, 4741, 4742
 4743, 4744, 4745, 4746, 4747, 4748, 4749, 4750, 4751
*Nset, nset=Disp_4, instance=Part-1-1
   38,   82,  126,  170,  226,  275,  335,  384,  454,  493,  532,  571,  610,  649,  688,  727
  766,  805,  844,  913,  952,  991, 1030, 1069, 1108, 1147, 1186, 1225, 1264, 1303, 1342, 1381
 1420, 1459, 1498, 1567, 1606, 1645, 1684, 1723, 1762, 1801, 1840, 1879, 1918, 1957, 1996, 2035
 2104, 2143, 2182, 2327, 2328, 2329, 2330, 2331, 2522, 2523, 2524, 2525, 2526, 2641, 2680, 2719
 2758, 2797, 2836, 2875, 2914, 2953, 2992, 3031, 3070, 3109, 3148, 3187, 3226, 3265, 3304, 3343
 3382, 3421, 3460, 3499, 3538, 3577, 3616, 3655, 3694, 3733, 3772, 3811, 3850, 3889, 3928, 3967
 4006, 4045, 4084, 4123, 4162, 4201, 4240, 4279, 4318, 4357, 4662, 4663, 4664, 4665, 4666, 4667
 4668, 4669, 4670, 4671, 4672, 4673, 4674, 4675, 4676
*Nset, nset=Set-8, instance=Part-1-1
 11,
*Nset, nset=Set-9, instance=Part-1-1
    2,    3,    6,    7,   10,   12,   14,   16,   58,   59,   60,   61,   62,  146,  147,  148
  149,  150,  201,  202,  203,  204,  205,  206,  246,  247,  248,  249,  250,  295,  296,  297
  298,  299,  308,  309,  310,  355,  356,  357,  358,  359,  404,  405,  406,  407,  408,  409
  410,  411,  425,  426,  427,  428,  429,  430,  431,  432,  433,  434,  879,  880,  881,  882
  883,  884,  885,  886,  887,  888,  889,  890,  891,  892,  893, 1533, 1534, 1535, 1536, 1537
 1538, 1539, 1540, 1541, 1542, 1543, 1544, 1545, 1546, 1547, 2055, 2056, 2057, 2058, 2059, 2060
 2061, 2062, 2063, 2064, 2065, 2066, 2067, 2068, 2069, 2217, 2218, 2219, 2220, 2221, 2222, 2223
 2224, 2225, 2226, 2227, 2228, 2229, 2230, 2231
*Elset, elset=Set-9, instance=Part-1-1
   40,   80,  120,  160,  200,  240,  280,  320,  360,  400,  440,  480,  520,  560,  600,  640
  680,  720,  760,  800,  840,  880,  920,  960, 1000, 1040, 1080, 1120, 1160, 1200, 1240, 1280
 1320, 1360, 1400, 1440, 1480, 1520, 1560, 1600, 1640, 1680, 1720, 1760, 1800, 1840, 1880, 1920
 1921, 1961, 2001, 2041, 2081, 2121, 2161, 2201, 2241, 2281, 2321, 2361, 2401, 2441, 2481, 2521
 2561, 2601, 2641, 2681, 2721, 2761, 2801, 2841, 3817, 3818, 3819, 3820, 3821, 3822, 3823, 3824
 3825, 3826, 3827, 3828, 3829, 3830, 3831, 3832, 3833, 3834, 3835, 3836, 3837, 3838, 3839, 3840
*Nset, nset=Set-10, instance=Part-1-1
 8,
*Nset, nset=Set-15, instance=Part-1-1
 18,
*Nset, nset=Set-17, instance=Part-1-1
   6,   7,  12,  16, 146, 147, 148, 149, 150, 295, 296, 297, 298, 299, 404, 405
 406, 407, 408, 430, 431, 432, 433, 434
*Elset, elset=Set-17, instance=Part-1-1
  760,  800,  840,  880,  920,  960, 1720, 1760, 1800, 1840, 1880, 1920, 2641, 2681, 2721, 2761
 2801, 2841, 3835, 3836, 3837, 3838, 3839, 3840
*Nset, nset=Set-19, instance=Part-1-1
 8,
*Nset, nset=Set-22
 1,
*Nset, nset=Set-23
 1,
*Nset, nset=Set-24
 1,
*Nset, nset=Set-28, instance=Part-1-1
    2,    3,    6,    7,   10,   12,   14,   16,   58,   59,   60,   61,   62,  146,  147,  148
  149,  150,  201,  202,  203,  204,  205,  206,  246,  247,  248,  249,  250,  295,  296,  297
  298,  299,  308,  309,  310,  355,  356,  357,  358,  359,  404,  405,  406,  407,  408,  409
  410,  411,  425,  426,  427,  428,  429,  430,  431,  432,  433,  434,  879,  880,  881,  882
  883,  884,  885,  886,  887,  888,  889,  890,  891,  892,  893, 1533, 1534, 1535, 1536, 1537
 1538, 1539, 1540, 1541, 1542, 1543, 1544, 1545, 1546, 1547, 2055, 2056, 2057, 2058, 2059, 2060
 2061, 2062, 2063, 2064, 2065, 2066, 2067, 2068, 2069, 2217, 2218, 2219, 2220, 2221, 2222, 2223
 2224, 2225, 2226, 2227, 2228, 2229, 2230, 2231
*Elset, elset=Set-28, instance=Part-1-1
   40,   80,  120,  160,  200,  240,  280,  320,  360,  400,  440,  480,  520,  560,  600,  640
  680,  720,  760,  800,  840,  880,  920,  960, 1000, 1040, 1080, 1120, 1160, 1200, 1240, 1280
 1320, 1360, 1400, 1440, 1480, 1520, 1560, 1600, 1640, 1680, 1720, 1760, 1800, 1840, 1880, 1920
 1921, 1961, 2001, 2041, 2081, 2121, 2161, 2201, 2241, 2281, 2321, 2361, 2401, 2441, 2481, 2521
 2561, 2601, 2641, 2681, 2721, 2761, 2801, 2841, 3817, 3818, 3819, 3820, 3821, 3822, 3823, 3824
 3825, 3826, 3827, 3828, 3829, 3830, 3831, 3832, 3833, 3834, 3835, 3836, 3837, 3838, 3839, 3840
*Nset, nset=Set-30
 2,
*Nset, nset=Set-31, instance=Part-1-1
   6,   7,  12,  16, 146, 147, 148, 149, 150, 295, 296, 297, 298, 299, 404, 405
 406, 407, 408, 430, 431, 432, 433, 434
*Elset, elset=Set-31, instance=Part-1-1
  760,  800,  840,  880,  920,  960, 1720, 1760, 1800, 1840, 1880, 1920, 2641, 2681, 2721, 2761
 2801, 2841, 3835, 3836, 3837, 3838, 3839, 3840
*Nset, nset=Set-32
 2,
*Nset, nset=Set-34, instance=Part-1-1
   53,   67,  141,  155,  241,  290,  350,  399,  469,  508,  547,  586,  625,  664,  703,  742
  781,  820,  859,  928,  967, 1006, 1045, 1084, 1123, 1162, 1201, 1240, 1279, 1318, 1357, 1396
 1435, 1474, 1513, 1582, 1621, 1660, 1669, 1708, 1747, 1786, 1825, 1864, 1903, 1942, 1981, 2020
 2089, 2128, 2167, 2402, 2403, 2404, 2405, 2406, 2597, 2598, 2599, 2600, 2601, 2656, 2695, 2734
 2773, 2812, 2851, 2890, 2929, 2968, 3007, 3046, 3085, 3124, 3163, 3202, 3241, 3280, 3319, 3358
 3397, 3436, 3475, 3514, 3553, 3592, 3631, 3670, 3709, 3748, 3787, 3796, 3835, 3874, 3913, 3952
 3991, 4030, 4069, 4108, 4147, 4186, 4225, 4264, 4303, 4342, 4887, 4888, 4889, 4890, 4891, 4892
 4893, 4894, 4895, 4896, 4897, 4898, 4899, 4900, 4901
*Nset, nset=Set-35
 2,
*Nset, nset=Set-37
 2,
*Nset, nset=TargetNode, instance=Part-1-1
 678, 712, 722, 727, 732, 737, 742
*Nset, nset=m_Set-34
 2,
*Nset, nset=m_Set-47
 1,
*Nset, nset=p_Set-20, instance=Part-1-1
    1,    4,    5,    8,    9,   11,   13,   15,   18,  102,  103,  104,  105,  106,  190,  191
  192,  193,  194,  195,  196,  197,  198,  199,  200,  251,  252,  253,  254,  255,  300,  301
  302,  303,  304,  305,  306,  307,  311,  312,  313,  314,  315,  360,  361,  362,  363,  364
  412,  413,  414,  415,  416,  417,  418,  419,  420,  421,  422,  423,  424,  864,  865,  866
  867,  868,  869,  870,  871,  872,  873,  874,  875,  876,  877,  878, 1518, 1519, 1520, 1521
 1522, 1523, 1524, 1525, 1526, 1527, 1528, 1529, 1530, 1531, 1532, 2070, 2071, 2072, 2073, 2074
 2075, 2076, 2077, 2078, 2079, 2080, 2081, 2082, 2083, 2084, 2202, 2203, 2204, 2205, 2206, 2207
 2208, 2209, 2210, 2211, 2212, 2213, 2214, 2215, 2216
*Nset, nset=p_Set-20
 1,
*Elset, elset=p_Set-20, instance=Part-1-1
    1,   41,   81,  121,  161,  201,  241,  281,  321,  361,  401,  441,  481,  521,  561,  601
  641,  681,  721,  761,  801,  841,  881,  921,  961, 1001, 1041, 1081, 1121, 1161, 1201, 1241
 1281, 1321, 1361, 1401, 1441, 1481, 1521, 1561, 1601, 1641, 1681, 1721, 1761, 1801, 1841, 1881
 1960, 2000, 2040, 2080, 2120, 2160, 2200, 2240, 2280, 2320, 2360, 2400, 2440, 2480, 2520, 2560
 2600, 2640, 2680, 2720, 2760, 2800, 2840, 2880, 2881, 2882, 2883, 2884, 2885, 2886, 2887, 2888
 2889, 2890, 2891, 2892, 2893, 2894, 2895, 2896, 2897, 2898, 2899, 2900, 2901, 2902, 2903, 2904
 4075, 4076, 4077, 4078, 4079, 4080, 4315, 4316, 4317, 4318, 4319, 4320, 4321, 4322, 4323, 4324
 4325, 4326, 4561, 4562, 4563, 4564, 4565, 4566
*Nset, nset=p_Set-25, instance=Part-1-1
    2,    3,    6,    7,   10,   12,   14,   16,   17,   58,   59,   60,   61,   62,  146,  147
  148,  149,  150,  201,  202,  203,  204,  205,  206,  246,  247,  248,  249,  250,  295,  296
  297,  298,  299,  308,  309,  310,  355,  356,  357,  358,  359,  404,  405,  406,  407,  408
  409,  410,  411,  425,  426,  427,  428,  429,  430,  431,  432,  433,  434,  879,  880,  881
  882,  883,  884,  885,  886,  887,  888,  889,  890,  891,  892,  893, 1533, 1534, 1535, 1536
 1537, 1538, 1539, 1540, 1541, 1542, 1543, 1544, 1545, 1546, 1547, 2055, 2056, 2057, 2058, 2059
 2060, 2061, 2062, 2063, 2064, 2065, 2066, 2067, 2068, 2069, 2217, 2218, 2219, 2220, 2221, 2222
 2223, 2224, 2225, 2226, 2227, 2228, 2229, 2230, 2231
*Elset, elset=p_Set-25, instance=Part-1-1
   40,   80,  120,  160,  200,  240,  280,  320,  360,  400,  440,  480,  520,  560,  600,  640
  680,  720,  760,  800,  840,  880,  920,  960, 1000, 1040, 1080, 1120, 1160, 1200, 1240, 1280
 1320, 1360, 1400, 1440, 1480, 1520, 1560, 1600, 1640, 1680, 1720, 1760, 1800, 1840, 1880, 1920
 1921, 1961, 2001, 2041, 2081, 2121, 2161, 2201, 2241, 2281, 2321, 2361, 2401, 2441, 2481, 2521
 2561, 2601, 2641, 2681, 2721, 2761, 2801, 2841, 3817, 3818, 3819, 3820, 3821, 3822, 3823, 3824
 3825, 3826, 3827, 3828, 3829, 3830, 3831, 3832, 3833, 3834, 3835, 3836, 3837, 3838, 3839, 3840
 3841, 3842, 3843, 3844, 3845, 3846, 4081, 4082, 4083, 4084, 4085, 4086, 4555, 4556, 4557, 4558
 4559, 4560, 4795, 4796, 4797, 4798, 4799, 4800
*Nset, nset=p_Set-28, instance=Part-1-1
    2,    3,    6,    7,   10,   12,   14,   16,   17,   58,   59,   60,   61,   62,  146,  147
  148,  149,  150,  201,  202,  203,  204,  205,  206,  246,  247,  248,  249,  250,  295,  296
  297,  298,  299,  308,  309,  310,  355,  356,  357,  358,  359,  404,  405,  406,  407,  408
  409,  410,  411,  425,  426,  427,  428,  429,  430,  431,  432,  433,  434,  879,  880,  881
  882,  883,  884,  885,  886,  887,  888,  889,  890,  891,  892,  893, 1533, 1534, 1535, 1536
 1537, 1538, 1539, 1540, 1541, 1542, 1543, 1544, 1545, 1546, 1547, 2055, 2056, 2057, 2058, 2059
 2060, 2061, 2062, 2063, 2064, 2065, 2066, 2067, 2068, 2069, 2217, 2218, 2219, 2220, 2221, 2222
 2223, 2224, 2225, 2226, 2227, 2228, 2229, 2230, 2231
*Elset, elset=p_Set-28, instance=Part-1-1
   40,   80,  120,  160,  200,  240,  280,  320,  360,  400,  440,  480,  520,  560,  600,  640
  680,  720,  760,  800,  840,  880,  920,  960, 1000, 1040, 1080, 1120, 1160, 1200, 1240, 1280
 1320, 1360, 1400, 1440, 1480, 1520, 1560, 1600, 1640, 1680, 1720, 1760, 1800, 1840, 1880, 1920
 1921, 1961, 2001, 2041, 2081, 2121, 2161, 2201, 2241, 2281, 2321, 2361, 2401, 2441, 2481, 2521
 2561, 2601, 2641, 2681, 2721, 2761, 2801, 2841, 3817, 3818, 3819, 3820, 3821, 3822, 3823, 3824
 3825, 3826, 3827, 3828, 3829, 3830, 3831, 3832, 3833, 3834, 3835, 3836, 3837, 3838, 3839, 3840
 3841, 3842, 3843, 3844, 3845, 3846, 4081, 4082, 4083, 4084, 4085, 4086, 4555, 4556, 4557, 4558
 4559, 4560, 4795, 4796, 4797, 4798, 4799, 4800
*Nset, nset=t_Set-34, instance=Part-1-1
    2,    3,    6,    7,   10,   12,   14,   16,   17,   58,   59,   60,   61,   62,  146,  147
  148,  149,  150,  201,  202,  203,  204,  205,  206,  246,  247,  248,  249,  250,  295,  296
  297,  298,  299,  308,  309,  310,  355,  356,  357,  358,  359,  404,  405,  406,  407,  408
  409,  410,  411,  425,  426,  427,  428,  429,  430,  431,  432,  433,  434,  879,  880,  881
  882,  883,  884,  885,  886,  887,  888,  889,  890,  891,  892,  893, 1533, 1534, 1535, 1536
 1537, 1538, 1539, 1540, 1541, 1542, 1543, 1544, 1545, 1546, 1547, 2055, 2056, 2057, 2058, 2059
 2060, 2061, 2062, 2063, 2064, 2065, 2066, 2067, 2068, 2069, 2217, 2218, 2219, 2220, 2221, 2222
 2223, 2224, 2225, 2226, 2227, 2228, 2229, 2230, 2231
*Elset, elset=t_Set-34, instance=Part-1-1
   40,   80,  120,  160,  200,  240,  280,  320,  360,  400,  440,  480,  520,  560,  600,  640
  680,  720,  760,  800,  840,  880,  920,  960, 1000, 1040, 1080, 1120, 1160, 1200, 1240, 1280
 1320, 1360, 1400, 1440, 1480, 1520, 1560, 1600, 1640, 1680, 1720, 1760, 1800, 1840, 1880, 1920
 1921, 1961, 2001, 2041, 2081, 2121, 2161, 2201, 2241, 2281, 2321, 2361, 2401, 2441, 2481, 2521
 2561, 2601, 2641, 2681, 2721, 2761, 2801, 2841, 3817, 3818, 3819, 3820, 3821, 3822, 3823, 3824
 3825, 3826, 3827, 3828, 3829, 3830, 3831, 3832, 3833, 3834, 3835, 3836, 3837, 3838, 3839, 3840
 3841, 3842, 3843, 3844, 3845, 3846, 4081, 4082, 4083, 4084, 4085, 4086, 4555, 4556, 4557, 4558
 4559, 4560, 4795, 4796, 4797, 4798, 4799, 4800
*Elset, elset=_s_Surf-1_S1, internal, instance=Part-1-1
 3817, 3818, 3819, 3820, 3821, 3822, 3823, 3824, 3825, 3826, 3827, 3828, 3829, 3830, 3831, 3832
 3833, 3834, 3835, 3836, 3837, 3838, 3839, 3840, 3841, 3842, 3843, 3844, 3845, 3846, 4081, 4082
 4083, 4084, 4085, 4086
*Elset, elset=_s_Surf-1_S6, internal, instance=Part-1-1, generate
 1921,  2841,    40
*Elset, elset=_s_Surf-1_S4, internal, instance=Part-1-1, generate
   40,  1920,    40
*Elset, elset=_s_Surf-1_S2, internal, instance=Part-1-1
 4555, 4556, 4557, 4558, 4559, 4560, 4795, 4796, 4797, 4798, 4799, 4800
*Surface, type=ELEMENT, name=s_Surf-1
_s_Surf-1_S1, S1
_s_Surf-1_S6, S6
_s_Surf-1_S4, S4
_s_Surf-1_S2, S2
*Elset, elset=_s_Surf-2_S4, internal, instance=Part-1-1, generate
 1960,  2880,    40
*Elset, elset=_s_Surf-2_S2, internal, instance=Part-1-1
 2881, 2882, 2883, 2884, 2885, 2886, 2887, 2888, 2889, 2890, 2891, 2892, 2893, 2894, 2895, 2896
 2897, 2898, 2899, 2900, 2901, 2902, 2903, 2904, 4075, 4076, 4077, 4078, 4079, 4080, 4315, 4316
 4317, 4318, 4319, 4320
*Elset, elset=_s_Surf-2_S1, internal, instance=Part-1-1
 4321, 4322, 4323, 4324, 4325, 4326, 4561, 4562, 4563, 4564, 4565, 4566
*Elset, elset=_s_Surf-2_S6, internal, instance=Part-1-1, generate
    1,  1881,    40
*Surface, type=ELEMENT, name=s_Surf-2
_s_Surf-2_S4, S4
_s_Surf-2_S2, S2
_s_Surf-2_S6, S6
_s_Surf-2_S1, S1
** Constraint: Constraint-Base
*Coupling, constraint name=Constraint-Base, ref node=m_Set-34, surface=s_Surf-1
*Distributing, weighting method=UNIFORM
** Constraint: Constraint-Top
*Coupling, constraint name=Constraint-Top, ref node=m_Set-47, surface=s_Surf-2
*Distributing, weighting method=UNIFORM
*End Assembly
** 
** MATERIALS
** 
*Material, name=Plant_A
*Density
 0.00458817,
*Elastic
6500., 0.25
** 
** BOUNDARY CONDITIONS
** 
** Name: BC-Fixed Type: Displacement/Rotation
*Boundary
Set-35, 1, 1
Set-35, 2, 2
Set-35, 3, 3
Set-35, 4, 4
Set-35, 5, 5
Set-35, 6, 6
** ----------------------------------------------------------------
** 
** STEP: Step-1
** 
*Step, name=Step-1, nlgeom=NO
*Static
1., 1., 1e-05, 1.
** 
** BOUNDARY CONDITIONS
** 
** Name: BC-Fixed Type: Displacement/Rotation
*Boundary
Set-35, 4, 4
Set-35, 5, 5
Set-35, 6, 6
** 
** LOADS
** 
** Name: Self_Weight   Type: Gravity
*Dload
, GRAV, 384., 0., 0., 1.
** Name: Spike_Load_Rev   Type: Concentrated force
*Cload
Set-24, 3, 0.054
** Name: Theta_Base_Effect_Additional_Rev   Type: Concentrated force
*Cload
Set-23, 1, 0.15
** Name: WindRev   Type: Concentrated force
*Cload
Set-22, 1, 0.25
** 
** OUTPUT REQUESTS
** 
*Restart, write, frequency=0
** 
** FIELD OUTPUT: F-Output-1
** 
*Output, field, variable=PRESELECT
** 
** HISTORY OUTPUT: Disp5
** 
*Output, history
*Node Output, nset=Dips_5
U1, 
** 
** HISTORY OUTPUT: Disp6
** 
*Node Output, nset=Dips_6
U1, 
** 
** HISTORY OUTPUT: Disp7
** 
*Node Output, nset=Dips_7
U1, 
** 
** HISTORY OUTPUT: Disp1
** 
*Node Output, nset=Disp_1
U1, 
** 
** HISTORY OUTPUT: Disp2
** 
*Node Output, nset=Disp_2
U1, 
** 
** HISTORY OUTPUT: Disp3
** 
*Node Output, nset=Disp_3
U1, 
** 
** HISTORY OUTPUT: Disp4
** 
*Node Output, nset=Disp_4
U1, 
*End Step
